/*--------------------------------*- C++ -*----------------------------------*\
| =========                 |                                                 |
| \\      /  F ield         | OpenFOAM: The Open Source CFD Toolbox           |
|  \\    /   O peration     | Version:  4.x                                   |
|   \\  /    A nd           | Web:      www.OpenFOAM.org                      |
|    \\/     M anipulation  |                                                 |
\*---------------------------------------------------------------------------*/
FoamFile
{
    version     2.0;
    format      ascii;
    class       volScalarField;
    location    "0";
    object      C;
}
// * * * * * * * * * * * * * * * * * * * * * * * * * * * * * * * * * * * * * //

dimensions      [0 0 0 0 0 0 0];


internalField   uniform 0;

boundaryField
{
    bottom
    {
        type            fixedValue;
        value           uniform 0.00098;
  
    }
    top
    {
		
		type            fixedValue;
        value           uniform 0;
        
    }
    left
    {
        type            fixedValue;
        value           uniform 0;
    }
    right
    {
        type            zeroGradient;
    }
    defaultPatches
    {
        type            empty;
    }

// ************************************************************************* //
