/*--------------------------------*- C++ -*----------------------------------*\
| =========                 |                                                 |
| \\      /  F ield         | OpenFOAM: The Open Source CFD Toolbox           |
|  \\    /   O peration     | Version:  4.x                                   |
|   \\  /    A nd           | Web:      www.OpenFOAM.org                      |
|    \\/     M anipulation  |                                                 |
\*---------------------------------------------------------------------------*/
FoamFile
{
    version     2.0;
    format      ascii;
    class       dictionary;
    location    "constant";
    object      transportProperties;
}
// * * * * * * * * * * * * * * * * * * * * * * * * * * * * * * * * * * * * * //
w0              w0 [0 1 -1 0 0 0 0] 0.013641276091151;
alpha           alpha [0 0 0 0 0 0 0] 1;
kappa           kappa [0 0 0 0 0 0 0] 0.41;
ustar           ustar [0 1 -1 0 0 0 0] 0.068206380455756;
h               h [0 1 0 0 0 0 0] 0.148;
// ************************************************************************* //
